<?xml version="1.0" encoding="UTF-8"?>

<!-- generated on Thu Jan  2 19:04:18 2020 by SUMO polyconvert Version 0.32.0
<?xml version="1.0" encoding="UTF-8"?>

<configuration xmlns:xsi="http://www.w3.org/2001/XMLSchema-instance" xsi:noNamespaceSchemaLocation="http://sumo.dlr.de/xsd/polyconvertConfiguration.xsd">

    <input>
        <net-file value="KKnagar.net.xml"/>
        <osm-files value="KKnagar.osm"/>
        <type-file value="osmPolyconvert.typ.xml"/>
    </input>

    <output>
        <output-file value="KKnagar.poly.xml"/>
    </output>

    <processing>
        <poi-layer-offset value="5"/>
    </processing>

</configuration>
-->

<additional xmlns:xsi="http://www.w3.org/2001/XMLSchema-instance" xsi:noNamespaceSchemaLocation="http://sumo.dlr.de/xsd/additional_file.xsd">
    <location netOffset="-412151.34,-1436645.20" convBoundary="-93.83,-0.00,5189.82,9455.96" origBoundary="80.188944,12.994322,80.237670,13.079828" projParameter="+proj=utm +zone=44 +ellps=WGS84 +datum=WGS84 +units=m +no_defs"/>

    <poly id="113676165" type="landuse" color="194,194,130" fill="1" layer="-3.00" shape="2469.65,4734.72 2463.24,4730.12 2463.65,4676.94 2525.89,4676.75 2524.32,4733.40 2469.65,4734.72"/>
    <poly id="118695817" type="amenity" color="237,199,199" fill="1" layer="-1.00" shape="2460.45,4771.10 2497.10,4770.99 2509.50,4783.20 2491.95,4799.90 2459.96,4800.59 2460.45,4771.10"/>
    <poly id="125180726" type="amenity" color="237,199,199" fill="1" layer="-1.00" shape="1805.48,4240.35 1986.26,4212.07 2013.18,4332.74 2145.55,4308.56 2173.56,4496.31 2010.37,4521.21 1873.26,4542.15 1766.11,4558.50 1758.00,4503.93 1736.79,4361.15 1822.15,4347.75 1805.48,4240.35"/>
    <poly id="125234700" type="amenity" color="237,199,199" fill="1" layer="-1.00" shape="1687.49,4570.19 1678.22,4516.60 1758.00,4503.93 1766.11,4558.50 1687.49,4570.19"/>
    <poly id="215529550" type="residential" color="235,235,227" fill="1" layer="-3.00" shape="2560.12,5225.97 2483.47,5223.49 2484.74,5122.34 2566.15,5125.47 2560.12,5225.97"/>
    <poly id="215529551" type="landuse" color="194,194,130" fill="1" layer="-3.00" shape="2464.18,4758.06 2472.52,4758.83 2505.39,4759.53 2494.29,4751.44 2465.44,4751.53 2462.40,4753.93 2464.18,4758.06"/>
    <poly id="215529552" type="leisure" color="207,245,201" fill="1" layer="-2.00" shape="2560.62,4977.75 2577.75,5021.83 2526.76,5020.87 2526.64,4981.52 2560.62,4977.75"/>
    <poly id="215529553" type="amenity" color="237,199,199" fill="1" layer="-1.00" shape="2625.48,5112.17 2682.40,5114.70 2685.12,5111.53 2644.79,5047.22 2626.68,5058.55 2625.48,5112.17"/>
    <poly id="215569957" type="building" color="255,230,230" fill="1" layer="-1.00" shape="1745.61,4519.50 1750.28,4550.52 1700.65,4557.88 1695.98,4526.86 1745.61,4519.50"/>
    <poly id="218221685" type="amenity" color="237,199,199" fill="1" layer="-1.00" shape="1654.12,5107.89 1620.53,5113.10 1619.48,5079.82 1645.20,5077.07 1650.31,5083.60 1654.12,5107.89"/>
    <poly id="218221686" type="amenity" color="237,199,199" fill="1" layer="-1.00" shape="2085.52,5217.08 2093.89,5274.86 2153.42,5266.36 2145.05,5208.56 2085.52,5217.08"/>
    <poly id="218221689" type="building" color="255,230,230" fill="1" layer="-1.00" shape="1647.08,5101.45 1646.51,5093.05 1632.45,5093.99 1633.02,5102.39 1647.08,5101.45"/>
    <poly id="218221690" type="building" color="255,230,230" fill="1" layer="-1.00" shape="2140.64,5233.25 2138.15,5214.09 2092.98,5219.89 2095.47,5239.05 2140.64,5233.25"/>
    <poly id="218221722" type="leisure" color="207,245,201" fill="1" layer="-2.00" shape="2040.04,5351.53 2078.59,5345.43 2091.10,5423.60 2052.56,5429.69 2040.04,5351.53"/>
    <poly id="25460321" type="water" color="181,209,209" fill="0" layer="-4.00" shape="1608.38,5053.09 1568.91,4822.92 1527.42,4549.86 1442.22,4391.06 1415.79,4274.62 1375.55,4205.39 1334.54,4188.87 1302.79,4152.91 1233.01,4159.59 1213.40,4142.08 1101.71,4137.81 1074.78,4157.32 1049.65,4159.24 976.09,4147.45 960.23,4121.91 940.16,4100.42 893.08,4109.75 827.07,4089.66 805.00,4045.63 820.46,3988.07 804.12,3914.87 802.62,3844.64"/>
    <poly id="27347413" type="industrial" color="209,209,204" fill="1" layer="-3.00" shape="825.86,5852.79 823.11,5813.41 847.98,5811.99 825.85,5643.19 661.62,5654.39 659.57,5625.03 567.96,5626.66 565.16,5569.93 347.92,5579.29 337.22,5715.49 473.35,5715.73 475.55,5791.82 563.43,5851.62 611.88,5858.80 825.86,5852.79"/>
    <poly id="27433214" type="amenity" color="237,199,199" fill="1" layer="-1.00" shape="2174.93,5313.26 2283.25,5314.04 2291.07,5124.06 2192.07,5121.36 2197.49,5180.77 2158.08,5178.91 2174.93,5313.26"/>
    <poly id="27433215" type="amenity" color="237,199,199" fill="1" layer="-1.00" shape="2158.08,5178.91 2197.49,5180.77 2192.07,5121.36 2149.75,5120.06 2158.08,5178.91"/>
    <poly id="27433218" type="amenity" color="237,199,199" fill="1" layer="-1.00" shape="2213.33,4721.51 2014.93,4751.68 2004.07,4675.37 2201.50,4645.69 2213.33,4721.51"/>
    <poly id="27433220" type="landuse" color="194,194,130" fill="1" layer="-3.00" shape="2598.07,4633.55 2596.36,4595.77 2659.51,4586.30 2664.64,4631.02 2598.07,4633.55"/>
    <poly id="27434308" type="industrial" color="209,209,204" fill="1" layer="-3.00" shape="1550.23,5881.26 1511.65,5873.98 1503.99,5434.33 1520.84,5402.95 1642.92,5491.69 1684.94,5550.97 1798.98,5610.03 1791.64,5635.43 1760.19,5622.80 1758.07,5974.01 1553.13,5914.54 1550.23,5881.26"/>
    <poly id="27434892" type="tourism" color="207,245,201" fill="1" layer="-2.00" shape="578.26,5423.28 572.20,5380.54 631.06,5371.85 637.13,5414.59 578.26,5423.28"/>
    <poly id="27435143" type="amenity" color="237,199,199" fill="1" layer="-1.00" shape="875.87,5507.16 872.73,5483.12 939.92,5474.44 944.09,5506.27 904.99,5511.32 903.97,5503.53 875.87,5507.16"/>
    <poly id="32510191" type="amenity" color="237,199,199" fill="1" layer="-1.00" shape="1055.73,5144.86 1156.69,5129.86 1127.88,4954.87 1026.34,4971.06 1055.73,5144.86"/>
    <poly id="32613777" type="industrial" color="209,209,204" fill="1" layer="-3.00" shape="1658.20,4574.55 1687.49,4570.19 1766.11,4558.50 1758.00,4503.93 1736.79,4361.15 1622.89,4378.00 1630.04,4424.87 1658.20,4574.55"/>
    <poly id="32616590" type="amenity" color="237,199,199" fill="1" layer="-1.00" shape="2227.73,4712.71 2395.36,4688.37 2380.79,4584.09 2213.15,4608.43 2227.73,4712.71"/>
    <poly id="33020613" type="man_made" color="255,230,230" fill="1" layer="-1.00" shape="242.74,4790.42 205.91,4332.76 185.08,4220.00 262.28,4204.04 258.34,4139.31 298.35,4134.56 336.46,4117.79 368.99,4102.89 423.04,4124.91 480.75,4124.73 538.66,4613.19 593.41,4609.41 592.15,4579.39 656.92,4581.59 674.09,4723.51 242.74,4790.42"/>
    <poly id="34016629" type="tourism" color="207,245,201" fill="1" layer="-2.00" shape="1186.97,5329.88 1178.78,5273.69 1222.10,5267.32 1231.23,5323.49 1186.97,5329.88"/>
    <poly id="34016632" type="amenity" color="237,199,199" fill="1" layer="-1.00" shape="917.16,5371.42 909.74,5320.30 943.13,5315.52 950.54,5366.65 917.16,5371.42"/>
    <poly id="34019456" type="tourism" color="207,245,201" fill="1" layer="-2.00" shape="1455.46,5004.77 1494.61,4998.43 1486.20,4944.41 1447.05,4950.74 1455.46,5004.77"/>
    <poly id="34019466" type="industrial" color="209,209,204" fill="1" layer="-3.00" shape="1409.00,5114.22 1435.31,5288.29 1464.01,5289.70 1460.96,5257.43 1558.06,5239.86 1557.67,5350.22 1383.33,5379.29 1344.26,5123.42 1409.00,5114.22"/>
    <poly id="34019748" type="tourism" color="207,245,201" fill="1" layer="-2.00" shape="1620.53,5113.10 1654.12,5107.89 1685.98,5332.10 1614.77,5343.13 1618.26,5203.81 1620.53,5113.10"/>
    <poly id="34020981" type="tourism" color="207,245,201" fill="1" layer="-2.00" shape="883.51,5097.40 917.73,5092.47 909.54,5033.39 875.31,5038.33 883.51,5097.40"/>
    <poly id="34020986" type="tourism" color="207,245,201" fill="1" layer="-2.00" shape="534.35,5147.81 601.96,5138.44 594.58,5083.11 526.98,5092.48 534.35,5147.81"/>
    <poly id="34023071" type="tourism" color="207,245,201" fill="1" layer="-2.00" shape="505.40,4883.43 538.24,4878.87 545.17,4932.82 514.11,4937.37 505.40,4883.43"/>
    <poly id="34023071#1" type="sport" color="79,230,125" fill="1" layer="-2.00" shape="505.40,4883.43 538.24,4878.87 545.17,4932.82 514.11,4937.37 505.40,4883.43"/>
    <poly id="34023081" type="amenity" color="237,199,199" fill="1" layer="-1.00" shape="844.26,4889.25 833.91,4829.16 868.05,4823.05 878.40,4883.13 844.26,4889.25"/>
    <poly id="34023089" type="tourism" color="207,245,201" fill="1" layer="-2.00" shape="1117.93,4844.54 1160.19,4837.38 1151.18,4782.15 1108.92,4789.32 1117.93,4844.54"/>
    <poly id="34023097" type="tourism" color="207,245,201" fill="1" layer="-2.00" shape="1430.04,4810.71 1465.64,4804.34 1456.64,4752.12 1421.05,4758.50 1430.04,4810.71"/>
    <poly id="34026886" type="leisure" color="207,245,201" fill="1" layer="-2.00" shape="1763.98,5536.71 1783.31,5507.22 1697.74,5443.83 1639.33,5446.66 1763.98,5536.71"/>
    <poly id="34026888" type="leisure" color="207,245,201" fill="1" layer="-2.00" shape="1969.31,5370.67 1978.42,5425.90 1936.45,5409.21 1960.35,5371.18 1969.31,5370.67"/>
    <poly id="34028125" type="amenity" color="237,199,199" fill="1" layer="-1.00" shape="1419.03,4445.26 1444.52,4613.22 1387.20,4622.52 1345.82,4386.03 1322.06,4302.66 1334.53,4299.74 1328.20,4268.89 1394.69,4251.87 1449.42,4433.06 1419.03,4445.26"/>
    <poly id="34060137" type="industrial" color="209,209,204" fill="1" layer="-3.00" shape="344.24,5545.97 409.37,5538.07 428.74,5525.31 423.40,5486.34 348.42,5496.02 344.24,5545.97"/>
    <poly id="354304188" type="building" color="255,230,230" fill="1" layer="-1.00" shape="849.20,5526.70 865.93,5523.73 864.17,5513.92 847.43,5516.89 849.20,5526.70"/>
    <poly id="354304193" type="building" color="255,230,230" fill="1" layer="-1.00" shape="852.62,5585.38 853.30,5585.25 853.46,5586.18 856.26,5585.66 856.08,5584.74 856.83,5584.59 857.00,5585.54 865.16,5584.02 864.99,5583.07 866.39,5582.81 866.72,5584.55 869.89,5583.95 869.79,5583.44 870.77,5583.26 870.87,5583.77 873.02,5583.37 871.76,5576.61 873.44,5576.30 873.04,5574.16 865.59,5575.56 865.49,5575.04 861.82,5575.73 861.86,5575.94 851.27,5577.92 851.72,5580.34 852.42,5580.21 852.74,5581.89 851.99,5582.03 852.62,5585.38"/>
    <poly id="354304213" type="building" color="255,230,230" fill="1" layer="-1.00" shape="851.60,5542.76 870.10,5540.21 868.71,5530.24 850.21,5532.78 851.60,5542.76"/>
    <poly id="354304230" type="building" color="255,230,230" fill="1" layer="-1.00" shape="848.16,5568.45 872.81,5563.99 871.42,5556.39 846.77,5560.84 848.16,5568.45"/>
    <poly id="354306134" type="building" color="255,230,230" fill="1" layer="-1.00" shape="1254.69,5625.65 1288.81,5618.60 1283.42,5592.81 1249.29,5599.86 1254.69,5625.65"/>
    <poly id="354460028" type="building" color="255,230,230" fill="1" layer="-1.00" shape="1316.91,5295.13 1340.07,5291.61 1338.01,5278.26 1327.39,5279.86 1327.51,5280.62 1324.95,5281.01 1324.60,5278.68 1320.40,5279.33 1320.65,5280.91 1314.86,5281.79 1316.91,5295.13"/>
    <poly id="354460036" type="building" color="255,230,230" fill="1" layer="-1.00" shape="1314.26,5271.78 1318.97,5271.06 1318.77,5269.76 1329.61,5268.11 1329.84,5269.67 1334.76,5268.92 1332.37,5253.41 1329.18,5253.90 1328.87,5251.88 1332.34,5251.35 1329.95,5235.83 1309.52,5238.94 1311.65,5252.73 1317.02,5251.91 1317.72,5256.40 1312.03,5257.26 1314.26,5271.78"/>
    <poly id="354460043" type="building" color="255,230,230" fill="1" layer="-1.00" shape="1401.45,5804.63 1441.34,5801.26 1429.65,5664.76 1381.82,5668.14 1374.55,5669.42 1370.13,5673.61 1367.19,5680.24 1367.81,5686.31 1369.52,5689.83 1374.44,5694.10 1380.80,5695.31 1384.77,5694.97 1384.92,5696.67 1388.96,5696.33 1389.09,5697.80 1393.48,5697.43 1394.32,5707.37 1384.85,5708.17 1385.93,5720.77 1383.00,5721.02 1385.82,5753.92 1389.13,5753.64 1391.16,5777.26 1389.15,5777.43 1389.78,5784.78 1392.01,5784.60 1393.05,5796.76 1400.72,5796.11 1401.45,5804.63"/>
    <poly id="354460054" type="building" color="255,230,230" fill="1" layer="-1.00" shape="1136.37,5274.22 1142.64,5273.26 1140.81,5261.43 1134.54,5262.39 1136.37,5274.22"/>
    <poly id="354460059" type="building" color="255,230,230" fill="1" layer="-1.00" shape="1297.74,5165.61 1320.79,5162.10 1318.62,5147.98 1295.57,5151.48 1297.74,5165.61"/>
    <poly id="354460076" type="building" color="255,230,230" fill="1" layer="-1.00" shape="1077.15,5292.83 1095.65,5290.04 1094.50,5282.49 1076.01,5285.27 1077.15,5292.83"/>
    <poly id="354460079" type="building" color="255,230,230" fill="1" layer="-1.00" shape="1124.33,5236.30 1128.86,5235.60 1128.56,5233.67 1133.95,5232.84 1131.78,5218.82 1121.85,5220.33 1124.33,5236.30"/>
    <poly id="354460081" type="building" color="255,230,230" fill="1" layer="-1.00" shape="1811.88,5456.11 1826.18,5467.25 1842.15,5447.02 1827.83,5435.88 1811.88,5456.11"/>
    <poly id="354460083" type="building" color="255,230,230" fill="1" layer="-1.00" shape="993.57,5122.34 1003.65,5120.88 1001.78,5108.19 998.97,5108.59 998.30,5104.06 991.04,5105.11 993.57,5122.34"/>
    <poly id="354460085" type="building" color="255,230,230" fill="1" layer="-1.00" shape="1342.62,5616.99 1353.64,5614.64 1350.22,5598.79 1339.21,5601.14 1342.62,5616.99"/>
    <poly id="354460088" type="building" color="255,230,230" fill="1" layer="-1.00" shape="991.83,5059.01 1021.13,5054.61 1019.61,5044.59 990.30,5049.00 991.83,5059.01"/>
    <poly id="354460091" type="building" color="255,230,230" fill="1" layer="-1.00" shape="1043.36,5364.60 1070.43,5360.52 1068.30,5346.52 1041.23,5350.59 1043.36,5364.60"/>
    <poly id="354460096" type="building" color="255,230,230" fill="1" layer="-1.00" shape="1341.04,5593.63 1353.76,5591.23 1350.85,5575.97 1338.13,5578.35 1341.04,5593.63"/>
    <poly id="354460099" type="building" color="255,230,230" fill="1" layer="-1.00" shape="675.97,5560.04 687.22,5558.56 685.22,5543.68 673.97,5545.16 675.97,5560.04"/>
    <poly id="354460102" type="building" color="255,230,230" fill="1" layer="-1.00" shape="1057.94,5176.41 1075.07,5173.84 1073.76,5165.19 1072.99,5165.31 1072.69,5163.38 1069.72,5163.83 1069.49,5162.29 1056.10,5164.30 1057.94,5176.41"/>
    <poly id="354460106" type="building" color="255,230,230" fill="1" layer="-1.00" shape="1283.28,5217.89 1296.52,5215.88 1295.11,5206.67 1281.86,5208.68 1283.28,5217.89"/>
    <poly id="354460109" type="building" color="255,230,230" fill="1" layer="-1.00" shape="884.03,5168.54 893.35,5167.18 890.02,5144.51 880.70,5145.85 884.03,5168.54"/>
    <poly id="354460112" type="building" color="255,230,230" fill="1" layer="-1.00" shape="727.24,5355.94 736.30,5354.39 734.20,5342.27 725.14,5343.83 727.24,5355.94"/>
    <poly id="354460115" type="building" color="255,230,230" fill="1" layer="-1.00" shape="1027.19,5224.31 1046.51,5221.41 1045.22,5212.94 1025.90,5215.84 1027.19,5224.31"/>
    <poly id="354460118" type="building" color="255,230,230" fill="1" layer="-1.00" shape="1183.56,5268.36 1194.79,5266.64 1192.93,5254.68 1181.70,5256.40 1183.56,5268.36"/>
    <poly id="354460121" type="building" color="255,230,230" fill="1" layer="-1.00" shape="1136.00,5176.21 1144.88,5174.87 1141.31,5151.70 1132.44,5153.04 1136.00,5176.21"/>
    <poly id="354460125" type="building" color="255,230,230" fill="1" layer="-1.00" shape="723.71,5101.98 744.83,5098.45 742.25,5083.19 721.13,5086.71 723.71,5101.98"/>
    <poly id="354460127" type="building" color="255,230,230" fill="1" layer="-1.00" shape="1072.49,5265.55 1091.68,5262.67 1089.89,5250.92 1070.70,5253.81 1072.49,5265.55"/>
    <poly id="354460129" type="building" color="255,230,230" fill="1" layer="-1.00" shape="1271.59,5298.94 1279.67,5297.66 1277.79,5285.91 1269.71,5287.18 1271.59,5298.94"/>
    <poly id="354460131" type="building" color="255,230,230" fill="1" layer="-1.00" shape="1493.68,5248.06 1529.12,5243.25 1526.99,5227.76 1491.55,5232.58 1493.68,5248.06"/>
    <poly id="354460134" type="building" color="255,230,230" fill="1" layer="-1.00" shape="1325.74,5666.69 1336.07,5665.30 1333.39,5645.51 1323.06,5646.90 1325.74,5666.69"/>
    <poly id="354460137" type="building" color="255,230,230" fill="1" layer="-1.00" shape="1148.33,5231.42 1159.30,5229.73 1157.15,5215.83 1146.17,5217.51 1148.33,5231.42"/>
    <poly id="354460140" type="building" color="255,230,230" fill="1" layer="-1.00" shape="1017.24,5321.82 1037.85,5318.73 1036.11,5307.37 1015.50,5310.47 1017.24,5321.82"/>
    <poly id="354460146" type="building" color="255,230,230" fill="1" layer="-1.00" shape="1323.07,5579.76 1331.47,5578.23 1328.85,5564.02 1320.46,5565.55 1323.07,5579.76"/>
    <poly id="354460148" type="building" color="255,230,230" fill="1" layer="-1.00" shape="1023.68,5196.97 1035.57,5195.18 1033.87,5184.02 1021.98,5185.82 1023.68,5196.97"/>
    <poly id="354460152" type="building" color="255,230,230" fill="1" layer="-1.00" shape="1231.63,5260.43 1238.43,5259.39 1236.68,5248.06 1229.88,5249.10 1231.63,5260.43"/>
    <poly id="354460156" type="building" color="255,230,230" fill="1" layer="-1.00" shape="1257.85,5212.80 1265.67,5211.60 1263.74,5199.20 1255.93,5200.40 1257.85,5212.80"/>
    <poly id="354460159" type="building" color="255,230,230" fill="1" layer="-1.00" shape="931.60,5164.06 942.46,5162.48 938.89,5138.27 928.04,5139.84 931.60,5164.06"/>
    <poly id="354460162" type="building" color="255,230,230" fill="1" layer="-1.00" shape="1318.09,5641.15 1329.53,5639.70 1327.34,5622.66 1315.89,5624.11 1318.09,5641.15"/>
    <poly id="354460166" type="building" color="255,230,230" fill="1" layer="-1.00" shape="1158.57,5100.41 1176.51,5097.49 1174.52,5085.43 1156.58,5088.36 1158.57,5100.41"/>
    <poly id="354460168" type="building" color="255,230,230" fill="1" layer="-1.00" shape="1384.22,5656.47 1394.05,5655.67 1392.90,5641.82 1387.94,5642.22 1388.19,5645.15 1383.91,5645.50 1384.21,5649.12 1383.61,5649.18 1384.22,5656.47"/>
    <poly id="354460171" type="building" color="255,230,230" fill="1" layer="-1.00" shape="1093.14,5255.91 1112.95,5252.93 1111.38,5242.56 1091.57,5245.54 1093.14,5255.91"/>
    <poly id="354460174" type="building" color="255,230,230" fill="1" layer="-1.00" shape="1211.15,5240.08 1217.44,5239.12 1217.28,5238.15 1223.15,5237.25 1220.81,5222.21 1210.30,5223.81 1210.87,5227.53 1209.25,5227.77 1211.15,5240.08"/>
    <poly id="354460178" type="building" color="255,230,230" fill="1" layer="-1.00" shape="1259.03,5299.57 1265.73,5298.52 1263.89,5287.00 1257.19,5288.05 1259.03,5299.57"/>
    <poly id="354460180" type="building" color="255,230,230" fill="1" layer="-1.00" shape="1013.20,5309.65 1034.32,5306.46 1032.48,5294.40 1011.36,5297.58 1013.20,5309.65"/>
    <poly id="354460185" type="building" color="255,230,230" fill="1" layer="-1.00" shape="1180.96,5226.85 1194.63,5224.76 1192.55,5211.28 1183.34,5212.69 1182.86,5209.60 1178.40,5210.29 1178.81,5212.94 1178.17,5213.04 1178.81,5217.14 1179.44,5217.04 1180.96,5226.85"/>
    <poly id="354460191" type="building" color="255,230,230" fill="1" layer="-1.00" shape="1367.10,5589.11 1376.05,5587.76 1373.84,5573.21 1370.44,5573.71 1370.57,5574.61 1368.10,5574.98 1367.97,5574.09 1364.90,5574.54 1367.10,5589.11"/>
    <poly id="354460195" type="building" color="255,230,230" fill="1" layer="-1.00" shape="1203.04,5193.34 1212.41,5191.92 1210.37,5178.69 1200.08,5180.26 1201.45,5189.17 1202.37,5189.02 1203.04,5193.34"/>
    <poly id="354460202" type="building" color="255,230,230" fill="1" layer="-1.00" shape="1183.71,5163.58 1186.60,5163.13 1186.73,5164.01 1188.47,5163.75 1188.30,5162.65 1191.28,5162.20 1190.01,5153.89 1188.84,5154.07 1188.05,5148.91 1184.41,5149.46 1184.20,5148.09 1180.45,5148.65 1181.69,5156.68 1182.62,5156.54 1183.71,5163.58"/>
    <poly id="354460206" type="building" color="255,230,230" fill="1" layer="-1.00" shape="1805.55,5374.85 1813.95,5381.21 1824.73,5367.14 1816.32,5360.79 1805.55,5374.85"/>
    <poly id="354460208" type="building" color="255,230,230" fill="1" layer="-1.00" shape="1008.20,5152.81 1017.59,5151.46 1013.77,5125.48 1004.38,5126.85 1008.20,5152.81"/>
    <poly id="354460211" type="building" color="255,230,230" fill="1" layer="-1.00" shape="1382.52,5631.66 1395.59,5630.13 1393.46,5612.10 1380.39,5613.62 1382.52,5631.66"/>
    <poly id="354460214" type="building" color="255,230,230" fill="1" layer="-1.00" shape="1020.67,5183.99 1040.02,5181.08 1037.97,5167.57 1018.63,5170.48 1020.67,5183.99"/>
    <poly id="354460216" type="building" color="255,230,230" fill="1" layer="-1.00" shape="1241.33,5118.15 1252.94,5116.43 1248.91,5089.37 1237.29,5091.09 1241.33,5118.15"/>
    <poly id="354460219" type="building" color="255,230,230" fill="1" layer="-1.00" shape="1293.46,5310.14 1309.12,5307.75 1307.41,5296.66 1291.75,5299.04 1293.46,5310.14"/>
    <poly id="354460223" type="building" color="255,230,230" fill="1" layer="-1.00" shape="1087.41,5215.62 1107.26,5212.63 1105.41,5200.46 1085.56,5203.45 1087.41,5215.62"/>
    <poly id="354460224" type="building" color="255,230,230" fill="1" layer="-1.00" shape="1175.27,5200.71 1184.82,5199.25 1181.67,5178.80 1171.39,5180.36 1173.12,5191.62 1173.85,5191.51 1175.27,5200.71"/>
    <poly id="354460226" type="building" color="255,230,230" fill="1" layer="-1.00" shape="1416.72,5655.14 1428.75,5653.99 1427.70,5643.39 1421.34,5644.00 1421.24,5642.95 1418.22,5643.25 1418.32,5644.30 1415.68,5644.55 1416.72,5655.14"/>
    <poly id="354460229" type="building" color="255,230,230" fill="1" layer="-1.00" shape="1000.06,5650.09 1019.86,5645.20 1017.32,5634.98 997.51,5639.86 1000.06,5650.09"/>
    <poly id="354460232" type="building" color="255,230,230" fill="1" layer="-1.00" shape="1209.51,5222.48 1220.11,5220.85 1217.70,5205.22 1211.15,5206.22 1211.93,5211.22 1209.59,5211.57 1210.45,5217.15 1208.74,5217.41 1209.51,5222.48"/>
    <poly id="354460235" type="building" color="255,230,230" fill="1" layer="-1.00" shape="1008.75,5267.73 1028.74,5264.73 1027.04,5253.61 1007.06,5256.61 1008.75,5267.73"/>
    <poly id="354460238" type="building" color="255,230,230" fill="1" layer="-1.00" shape="693.46,5272.68 706.71,5270.90 704.76,5256.65 691.53,5258.43 693.46,5272.68"/>
    <poly id="354460242" type="building" color="255,230,230" fill="1" layer="-1.00" shape="921.97,5647.03 926.84,5646.15 924.09,5631.18 913.62,5633.09 914.60,5638.47 916.47,5638.12 916.70,5639.37 915.12,5639.65 916.26,5645.84 921.57,5644.88 921.97,5647.03"/>
    <poly id="354460244" type="building" color="255,230,230" fill="1" layer="-1.00" shape="666.48,5420.95 672.44,5420.04 670.61,5408.26 664.65,5409.16 666.48,5420.95"/>
    <poly id="354460247" type="building" color="255,230,230" fill="1" layer="-1.00" shape="683.34,5137.95 706.61,5134.56 705.01,5123.69 681.74,5127.09 683.34,5137.95"/>
    <poly id="354460250" type="building" color="255,230,230" fill="1" layer="-1.00" shape="1257.93,5188.39 1270.96,5186.42 1267.14,5161.55 1254.11,5163.53 1257.93,5188.39"/>
    <poly id="354460252" type="building" color="255,230,230" fill="1" layer="-1.00" shape="1106.14,5323.27 1125.34,5320.39 1123.56,5308.66 1104.35,5311.55 1106.14,5323.27"/>
    <poly id="354460255" type="building" color="255,230,230" fill="1" layer="-1.00" shape="1126.24,5255.32 1137.32,5253.63 1134.59,5235.97 1123.51,5237.67 1126.24,5255.32"/>
    <poly id="354460256" type="building" color="255,230,230" fill="1" layer="-1.00" shape="1019.22,5133.39 1033.59,5131.30 1032.21,5121.96 1021.74,5123.49 1021.59,5122.44 1017.71,5123.00 1019.22,5133.39"/>
    <poly id="354460259" type="building" color="255,230,230" fill="1" layer="-1.00" shape="1272.21,5108.67 1280.91,5107.40 1277.72,5086.02 1269.02,5087.30 1272.21,5108.67"/>
    <poly id="354460264" type="building" color="255,230,230" fill="1" layer="-1.00" shape="1303.74,5601.27 1315.67,5599.31 1313.16,5584.19 1301.23,5586.15 1303.74,5601.27"/>
    <poly id="354460266" type="building" color="255,230,230" fill="1" layer="-1.00" shape="892.84,5584.97 896.84,5584.27 896.65,5583.21 904.04,5581.92 902.29,5571.98 890.89,5573.97 892.84,5584.97"/>
    <poly id="354460268" type="building" color="255,230,230" fill="1" layer="-1.00" shape="1086.17,5201.57 1092.61,5200.61 1092.43,5199.43 1106.78,5197.27 1105.45,5188.60 1099.75,5189.45 1099.42,5187.29 1084.34,5189.55 1086.17,5201.57"/>
    <poly id="354460270" type="building" color="255,230,230" fill="1" layer="-1.00" shape="1246.97,5188.19 1254.36,5187.07 1254.09,5185.34 1255.11,5185.19 1253.39,5173.93 1251.81,5174.17 1251.32,5170.91 1244.47,5171.94 1246.97,5188.19"/>
    <poly id="354460272" type="building" color="255,230,230" fill="1" layer="-1.00" shape="840.86,5178.18 850.28,5176.83 846.60,5151.78 837.18,5153.14 840.86,5178.18"/>
    <poly id="354460274" type="building" color="255,230,230" fill="1" layer="-1.00" shape="691.19,5403.07 698.69,5401.92 697.13,5391.80 689.63,5392.96 691.19,5403.07"/>
    <poly id="354460276" type="building" color="255,230,230" fill="1" layer="-1.00" shape="1031.79,5256.31 1052.39,5253.21 1050.72,5242.21 1030.12,5245.30 1031.79,5256.31"/>
    <poly id="354460279" type="building" color="255,230,230" fill="1" layer="-1.00" shape="1158.56,5282.89 1164.26,5282.02 1162.53,5270.88 1156.83,5271.75 1158.56,5282.89"/>
    <poly id="354460281" type="building" color="255,230,230" fill="1" layer="-1.00" shape="687.21,5202.82 699.89,5200.89 696.66,5179.92 683.98,5181.85 687.21,5202.82"/>
    <poly id="354460285" type="building" color="255,230,230" fill="1" layer="-1.00" shape="1261.18,5150.21 1274.38,5148.20 1271.95,5132.37 1258.75,5134.38 1261.18,5150.21"/>
    <poly id="354460287" type="building" color="255,230,230" fill="1" layer="-1.00" shape="677.64,5113.03 702.34,5109.41 700.85,5099.37 676.15,5102.99 677.64,5113.03"/>
    <poly id="354460289" type="building" color="255,230,230" fill="1" layer="-1.00" shape="1075.62,5277.96 1094.28,5275.15 1092.92,5266.19 1074.25,5269.00 1075.62,5277.96"/>
    <poly id="354460290" type="building" color="255,230,230" fill="1" layer="-1.00" shape="1497.66,5330.33 1544.56,5323.96 1541.09,5298.75 1494.18,5305.14 1497.66,5330.33"/>
    <poly id="354460292" type="building" color="255,230,230" fill="1" layer="-1.00" shape="964.57,5129.51 975.36,5127.93 972.42,5107.91 961.64,5109.49 964.57,5129.51"/>
    <poly id="354460294" type="building" color="255,230,230" fill="1" layer="-1.00" shape="1315.44,5622.21 1326.57,5620.70 1324.29,5604.03 1313.16,5605.52 1315.44,5622.21"/>
    <poly id="354460296" type="building" color="255,230,230" fill="1" layer="-1.00" shape="1150.94,5249.83 1160.77,5248.33 1158.64,5234.62 1148.81,5236.13 1150.94,5249.83"/>
    <poly id="354460299" type="building" color="255,230,230" fill="1" layer="-1.00" shape="1052.94,5346.50 1064.50,5344.76 1062.32,5330.44 1050.76,5332.18 1052.94,5346.50"/>
    <poly id="354460301" type="building" color="255,230,230" fill="1" layer="-1.00" shape="880.20,5457.23 919.93,5451.27 918.33,5440.82 920.39,5440.51 919.62,5435.39 919.05,5435.47 918.22,5430.02 912.93,5430.81 912.86,5430.35 908.39,5431.02 908.47,5431.53 904.63,5432.10 904.55,5431.59 897.71,5432.62 897.90,5433.83 890.62,5434.92 890.44,5433.72 876.41,5435.82 877.12,5440.48 879.72,5440.09 880.02,5442.08 877.71,5442.43 878.50,5447.66 878.21,5447.70 878.68,5450.80 879.21,5450.72 880.20,5457.23"/>
    <poly id="354460305" type="building" color="255,230,230" fill="1" layer="-1.00" shape="1328.83,5596.78 1339.99,5594.88 1337.30,5579.26 1326.13,5581.16 1328.83,5596.78"/>
    <poly id="354460308" type="building" color="255,230,230" fill="1" layer="-1.00" shape="696.38,5576.36 706.52,5574.95 704.63,5561.56 694.49,5562.97 696.38,5576.36"/>
    <poly id="354460310" type="building" color="255,230,230" fill="1" layer="-1.00" shape="999.61,5213.86 1022.28,5210.46 1020.61,5199.50 997.95,5202.90 999.61,5213.86"/>
    <poly id="354460312" type="building" color="255,230,230" fill="1" layer="-1.00" shape="1204.44,5263.76 1211.51,5262.67 1209.68,5250.90 1202.61,5251.98 1204.44,5263.76"/>
    <poly id="354460314" type="building" color="255,230,230" fill="1" layer="-1.00" shape="1281.36,5229.88 1295.85,5227.68 1294.58,5219.38 1280.09,5221.58 1281.36,5229.88"/>
    <poly id="354460316" type="building" color="255,230,230" fill="1" layer="-1.00" shape="869.59,5172.53 879.41,5171.10 875.75,5146.21 865.93,5147.63 869.59,5172.53"/>
    <poly id="354460318" type="building" color="255,230,230" fill="1" layer="-1.00" shape="710.29,5352.07 717.36,5351.08 715.92,5340.78 708.85,5341.76 710.29,5352.07"/>
    <poly id="354460320" type="building" color="255,230,230" fill="1" layer="-1.00" shape="1193.07,5125.05 1205.44,5123.23 1201.56,5097.28 1189.21,5099.10 1193.07,5125.05"/>
    <poly id="354460322" type="building" color="255,230,230" fill="1" layer="-1.00" shape="1294.39,5142.13 1316.77,5138.73 1314.76,5125.62 1292.38,5129.01 1294.39,5142.13"/>
    <poly id="354460324" type="building" color="255,230,230" fill="1" layer="-1.00" shape="1532.38,5202.51 1561.85,5198.50 1560.03,5185.33 1530.57,5189.34 1532.38,5202.51"/>
    <poly id="354460326" type="building" color="255,230,230" fill="1" layer="-1.00" shape="1348.91,5666.24 1359.23,5664.91 1356.64,5645.13 1346.32,5646.46 1348.91,5666.24"/>
    <poly id="354460328" type="building" color="255,230,230" fill="1" layer="-1.00" shape="1096.05,5269.51 1117.77,5266.24 1115.88,5253.87 1094.16,5257.14 1096.05,5269.51"/>
    <poly id="354460330" type="building" color="255,230,230" fill="1" layer="-1.00" shape="1175.50,5246.13 1182.65,5245.03 1180.92,5233.92 1173.78,5235.02 1175.50,5246.13"/>
    <poly id="354460332" type="building" color="255,230,230" fill="1" layer="-1.00" shape="1043.26,5331.00 1057.68,5328.83 1056.08,5318.31 1041.65,5320.47 1043.26,5331.00"/>
    <poly id="354460334" type="building" color="255,230,230" fill="1" layer="-1.00" shape="949.40,5442.89 967.99,5440.11 966.34,5429.23 965.07,5429.41 963.94,5421.94 956.80,5423.01 957.21,5425.75 953.95,5426.24 953.53,5423.50 950.16,5424.01 950.26,5424.69 946.71,5425.22 949.40,5442.89"/>