<?xml version="1.0" encoding="UTF-8"?>
<!-- generated on 2020-01-02 19:06:15.912623 by $Id$
  options: -n KKnagar.net.xml -r KKnagar.rou.xml -e 50 -l
-->
<routes xmlns:xsi="http://www.w3.org/2001/XMLSchema-instance" xsi:noNamespaceSchemaLocation="http://sumo.dlr.de/xsd/routes_file.xsd">
    <trip id="0" depart="0.00" from="28682391#5" to="-206654143#5"/>
    <trip id="1" depart="1.00" from="28682391#5" to="27347343#4"/>
    <trip id="2" depart="2.00" from="-34026966#1" to="27346859#1"/>
    <trip id="3" depart="3.00" from="-27432323#0" to="28682185#0"/>
    <trip id="4" depart="4.00" from="-25466218#3" to="-34016635"/>
    <trip id="5" depart="5.00" from="-34020990#2" to="-27434887#0"/>
    <trip id="6" depart="6.00" from="23698628#1" to="692119585#2"/>
    <trip id="7" depart="7.00" from="-27346904#3" to="25466218#8"/>
    <trip id="8" depart="8.00" from="-27432321#0" to="23698629#2"/>
    <trip id="9" depart="9.00" from="-27346857#2" to="34020983"/>
    <trip id="10" depart="10.00" from="27432315#1" to="32613667#1"/>
    <trip id="11" depart="11.00" from="-27346870#1" to="-23698636#2"/>
    <trip id="12" depart="12.00" from="-27432314#2" to="27432321#1"/>
    <trip id="13" depart="13.00" from="34026892" to="-27434893"/>
    <trip id="14" depart="14.00" from="27346859#1" to="-101176398#3"/>
    <trip id="15" depart="15.00" from="27347311#1" to="27347350"/>
    <trip id="16" depart="16.00" from="34028151#0" to="27347343#5"/>
    <trip id="17" depart="17.00" from="-25454942#1" to="32613670#4"/>
    <trip id="18" depart="18.00" from="-34019453" to="-23698630#3"/>
    <trip id="19" depart="19.00" from="-34026966#1" to="27346904#3"/>
    <trip id="20" depart="20.00" from="-723320315" to="726099241#5"/>
    <trip id="21" depart="21.00" from="-692119585#2" to="-34023069"/>
    <trip id="22" depart="22.00" from="130792420#2" to="-34016639#1"/>
    <trip id="23" depart="23.00" from="-27347362" to="34028126#0"/>
    <trip id="24" depart="24.00" from="206654137#6" to="34050706#2"/>
    <trip id="25" depart="25.00" from="27347344#10" to="-34028139#1"/>
    <trip id="26" depart="26.00" from="726099241#5" to="-23698629#7"/>
    <trip id="27" depart="27.00" from="34028130#1" to="130792420#1"/>
    <trip id="28" depart="28.00" from="27434884#4" to="102550194"/>
    <trip id="29" depart="29.00" from="25466498#4" to="-551416902#12"/>
    <trip id="30" depart="30.00" from="-34023066#0" to="27347309#0"/>
    <trip id="31" depart="31.00" from="27442529" to="58503040#8"/>
    <trip id="32" depart="32.00" from="28682391#0" to="34028143"/>
    <trip id="33" depart="33.00" from="23698632#2" to="719569201"/>
    <trip id="34" depart="34.00" from="27346878" to="-23698628#1"/>
    <trip id="35" depart="35.00" from="719569201" to="27442533#1"/>
    <trip id="36" depart="36.00" from="692103280" to="27432597#0"/>
    <trip id="37" depart="37.00" from="27346857#1" to="-25466207#0"/>
    <trip id="38" depart="38.00" from="-32613670#0" to="34019461#2"/>
    <trip id="39" depart="39.00" from="27346857#3" to="27347350"/>
    <trip id="40" depart="40.00" from="-101176398#3" to="28682391#6"/>
    <trip id="41" depart="41.00" from="101176398#3" to="-27346867"/>
    <trip id="42" depart="42.00" from="-27432596#0" to="25454942#1"/>
    <trip id="43" depart="43.00" from="34019447#0" to="34028142#3"/>
    <trip id="44" depart="44.00" from="-27346895" to="-551416902#6"/>
    <trip id="45" depart="45.00" from="26527691#0" to="-719569201"/>
    <trip id="46" depart="46.00" from="206654151" to="-34023075#3"/>
    <trip id="47" depart="47.00" from="-32510089#2" to="27442533#2"/>
    <trip id="48" depart="48.00" from="27442535" to="34020988#0"/>
    <trip id="49" depart="49.00" from="-34016622" to="34028155"/>
</routes>
